ieee4/base/GYDUnBal.dss
clear
Set DefaultBaseFrequency=60

new circuit.GYDBal   basekV=12.47 phases=3 mvasc3=200000 200000

Set earthmodel=carson
new wiredata.conductor Runits=mi Rac=0.306 GMRunits=ft GMRac=0.0244  Radunits=in Diam=0.721 
new wiredata.neutral   Runits=mi Rac=0.592 GMRunits=ft GMRac=0.00814 Radunits=in Diam=0.563 
new linegeometry.4wire nconds=4 nphases=3 reduce=yes 
~ cond=1 wire=conductor units=ft x=-4   h=28 
~ cond=2 wire=conductor units=ft x=-1.5 h=28 
~ cond=3 wire=conductor units=ft x=3    h=28 
~ cond=4 wire=neutral   units=ft x=0    h=24 
new linegeometry.3wire nconds=3 nphases=3 reduce=no 
~ cond=1 wire=conductor units=ft x=-4   h=28 
~ cond=2 wire=conductor units=ft x=-1.5 h=28 
~ cond=3 wire=conductor units=ft x=3    h=28 

new line.line1 geometry=4wire length=2000 units=ft bus1=sourcebus bus2=n2

new transformer.t1 xhl=6
~ wdg=1 bus=n2.1.2.3.0 conn=wye     kV=12.47 kVA=6000 %r=0.5  ! Ground the neutral of wye winding
~ wdg=2 bus=n3         conn=Delta   kV=4.16  kVA=6000 %r=0.5 

new line.line2 bus1=n3 bus2=n4 geometry=3wire length=2500 units=ft  

New Load.load1a Phases=1  Bus1=n4.1.2  kW=850      PF=.85 kV=4.16 conn=delta model=2 vminpu=0.7
New Load.load1b Phases=1  Bus1=n4.2.3  kW=1200     PF=.90 kV=4.16 conn=delta model=2 vminpu=0.7
New Load.load1c Phases=1  Bus1=n4.3.1  kW=1583.33  PF=.95 kV=4.16 conn=delta model=2 vminpu=0.7

set voltagebases=[12.47, 4.16] 
calcvoltagebases     ! **** let DSS compute voltage bases
set tolerance=1e-8
solve

